*HEADING
Demo2A OpenFOAM patch shell modal model
*NODE, NSET=ALLNODES
1, 1.00236, -0.0881502, 0.1
2, 1.004, -0.0890014, 0.1
3, 1.004, -0.0890014, 0.15
4, 1.00236, -0.0881502, 0.15
5, 0.952897, -0.084872, 0.1
6, 0.94756, -0.0844413, 0.1
7, 0.94756, -0.0844413, 0.15
8, 0.952897, -0.084872, 0.15
9, 0.958249, -0.0852761, 0.1
10, 0.958249, -0.0852761, 0.15
11, 0.140065, -0.0412148, 0.1
12, 0.134709, -0.0407917, 0.1
13, 0.134709, -0.0407917, 0.15
14, 0.140065, -0.0412148, 0.15
15, 0.0440394, 0.0389468, 0.1
16, 0.0482783, 0.0406844, 0.1
17, 0.0482783, 0.0406844, 0.15
18, 0.0440394, 0.0389468, 0.15
19, 0.559146, 0.0381017, 0.1
20, 0.563662, 0.0372154, 0.1
** ... 736 like lines cut
*ELEMENT, TYPE=S4, ELSET=WING_SHELL
1, 1, 2, 3, 4
2, 5, 6, 7, 8
3, 9, 5, 8, 10
4, 11, 12, 13, 14
5, 15, 16, 17, 18
6, 19, 20, 21, 22
7, 12, 23, 24, 13
8, 25, 26, 27, 28
9, 29, 30, 31, 32
10, 33, 34, 35, 36
11, 16, 37, 38, 17
12, 39, 40, 41, 42
13, 43, 44, 45, 46
14, 47, 48, 49, 50
15, 51, 43, 46, 52
16, 53, 54, 55, 56
17, 57, 58, 59, 60
18, 61, 62, 63, 64
19, 65, 66, 67, 68
20, 69, 33, 36, 70
** ... 358 like lines cut
*NSET, NSET=ROOT
1, 2, 5, 6, 9, 11, 12, 15, 16, 19, 20, 23, 25, 26, 29, 30
33, 34, 37, 39, 40, 43, 44, 47, 48, 51, 53, 54, 57, 58, 61, 62
65, 66, 69, 71, 72, 75, 76, 79, 80, 83, 85, 86, 89, 90, 93, 94
97, 99, 100, 103, 104, 107, 109, 110, 113, 114, 117, 118, 121, 123, 124, 127
128, 131, 133, 134, 137, 138, 141, 142, 145, 147, 149, 151, 152, 155, 157, 158
161, 163, 165, 166, 169, 171, 172, 175, 177, 179, 181, 183, 185, 186, 189, 190
193, 195, 197, 198, 201, 203, 205, 206, 209, 211, 213, 215, 216, 219, 220, 223
225, 227, 229, 230, 233, 234, 237, 239, 241, 243, 245, 247, 249, 250, 253, 255
257, 258, 261, 263, 265, 267, 269, 271, 272, 275, 277, 279, 281, 283, 284, 287
289, 290, 293, 295, 297, 298, 301, 303, 305, 307, 309, 311, 313, 314, 317, 318
321, 323, 325, 327, 329, 331, 333, 334, 337, 339, 341, 342, 345, 346, 349, 350
353, 355, 357, 359, 361, 363, 365, 367, 369, 371, 373, 375, 377, 379, 381, 383
385, 387, 389, 391, 393, 395, 397, 399, 401, 403, 404, 407, 409, 410, 413, 415
416, 419, 421, 423, 424, 427, 429, 430, 433, 435, 436, 439, 440, 443, 445, 446
449, 451, 452, 455, 456, 459, 461, 463, 465, 466, 469, 471, 472, 475, 476, 479
480, 483, 484, 487, 488, 491, 493, 494, 497, 499, 501, 502, 505, 506, 509, 511
512, 515, 517, 519, 521, 523, 525, 526, 529, 531, 532, 535, 536, 539, 541, 543
544, 547, 548, 551, 553, 554, 557, 559, 560, 563, 565, 566, 569, 571, 572, 575
577, 578, 581, 583, 585, 587, 588, 591, 592, 595, 597, 599, 600, 603, 605, 607
609, 611, 613, 615, 617, 619, 621, 623, 625, 627, 629, 631, 633, 635, 637, 639
** ... 4 like lines cut
*MATERIAL, NAME=ALUMINUM
*ELASTIC
70000000000, 0.33
*DENSITY
2700
*SHELL SECTION, ELSET=WING_SHELL, MATERIAL=ALUMINUM
0.001
*BOUNDARY
ROOT, 1, 6, 0.0
*STEP
*FREQUENCY
6
*NODE FILE
U
*NODE PRINT, NSET=ALLNODES
U
*END STEP
